gem5 Simulator System.  http://gem5.org
gem5 is copyrighted software; use the --copyright option for details.

gem5 compiled Apr 17 2019 11:01:36
gem5 started May  1 2019 19:38:12
gem5 executing on metallica.cse.buffalo.edu, pid 41304
command line: build/X86/gem5.opt -d /home/csgrad/ahamed/bin/sims/sim_l1d_cache_16kB configs/example/se.py -I 100000000 -c /util/gem5/benchmark/429.mcf/src/benchmark -o /util/gem5/benchmark/429.mcf/data/inp.in --caches --l2cache --l1d_size=16kB --l1i_size=256kB --l2_size=4MB --l1d_assoc=16 --l1i_assoc=16 --l2_assoc=16 --cacheline_size=128

info: Standard input is not a terminal, disabling listeners.
Global frequency set at 1000000000000 ticks per second
warn: DRAM device capacity (8192 Mbytes) does not match the address range assigned (512 Mbytes)
warn: Sockets disabled, not accepting gdb connections
**** REAL SIMULATION ****
info: Entering event queue @ 0.  Starting simulation...
warn: readlink() called on '/proc/self/exe' may yield unexpected results in various settings.
      Returning '/util/gem5/benchmark/429.mcf/src/benchmark'
info: Increasing stack size by one page.
warn: ignoring syscall access(...)

MCF SPEC CPU2006 version 1.10
Copyright (c) 1998-2000 Zuse Institut Berlin (ZIB)
Copyright (c) 2000-2002 Andreas Loebel & ZIB
Copyright (c) 2003-2005 Andreas Loebel

Exiting @ tick 113801657000 because a thread reached the max instruction count
